                                  MODFLOW-2005     
      U.S. GEOLOGICAL SURVEY MODULAR FINITE-DIFFERENCE GROUND-WATER FLOW MODEL
                            VERSION 1.12.00 2/3/2017

 LIST FILE: unconfined.list
                         UNIT    2

 OPENING unconfined.dis
 FILE TYPE:DIS   UNIT   11   STATUS:OLD    
 FORMAT:FORMATTED              ACCESS:SEQUENTIAL          

 OPENING unconfined.bas
 FILE TYPE:BAS6   UNIT   13   STATUS:OLD    
 FORMAT:FORMATTED              ACCESS:SEQUENTIAL          

 OPENING unconfined.lpf
 FILE TYPE:LPF   UNIT   15   STATUS:OLD    
 FORMAT:FORMATTED              ACCESS:SEQUENTIAL          

 OPENING unconfined.ghb
 FILE TYPE:GHB   UNIT   23   STATUS:OLD    
 FORMAT:FORMATTED              ACCESS:SEQUENTIAL          

 OPENING unconfined.wel
 FILE TYPE:WEL   UNIT   20   STATUS:OLD    
 FORMAT:FORMATTED              ACCESS:SEQUENTIAL          

 OPENING unconfined.oc
 FILE TYPE:OC   UNIT   14   STATUS:OLD    
 FORMAT:FORMATTED              ACCESS:SEQUENTIAL          

 OPENING unconfined.pcg
 FILE TYPE:PCG   UNIT   27   STATUS:OLD    
 FORMAT:FORMATTED              ACCESS:SEQUENTIAL          

 OPENING unconfined.hds
 FILE TYPE:DATA(BINARY)   UNIT   51   STATUS:REPLACE
 FORMAT:UNFORMATTED            ACCESS:STREAM              

 BAS -- BASIC PACKAGE, VERSION 7, 5/2/2005 INPUT READ FROM UNIT   13

 MODFLOW was compiled using mixed precision
 Precision of REAL variables:           6
 Precision of DOUBLE PRECISION variables:          15

 DISCRETIZATION INPUT DATA READ FROM UNIT   11
 # DIS package for  MODFLOW-2005, generated by Flopy.
    1 LAYERS        10 ROWS        10 COLUMNS
    3 STRESS PERIOD(S) IN SIMULATION
 MODEL TIME UNIT IS DAYS
 MODEL LENGTH UNIT IS METERS
  Confining bed flag for each layer:
   0

                     DELR =   100.000    

                     DELC =   100.000    

 TOP ELEVATION OF LAYER 1 =   0.00000    

   MODEL LAYER BOTTOM EL. =  -50.0000     FOR LAYER   1


 STRESS PERIOD     LENGTH       TIME STEPS     MULTIPLIER FOR DELT    SS FLAG
 ----------------------------------------------------------------------------
        1         1.000000          1                    1.000         SS
        2         100.0000        100                    1.000         TR
        3         100.0000        100                    1.000         TR

 COMBINED STEADY-STATE AND TRANSIENT SIMULATION




 # BAS6 package for  MODFLOW-2005, generated by Flopy.                           
 THE FREE FORMAT OPTION HAS BEEN SELECTED



                     BOUNDARY ARRAY FOR LAYER   1
 READING ON UNIT   13 WITH FORMAT: (10I10)             

 AQUIFER HEAD WILL BE SET TO  -999.99     AT ALL NO-FLOW NODES (IBOUND=0).



                       INITIAL HEAD FOR LAYER   1
 READING ON UNIT   13 WITH FORMAT: (10E15.6)           
 # OC package for  MODFLOW-2005, generated by Flopy.

 OUTPUT CONTROL IS SPECIFIED ONLY AT TIME STEPS FOR WHICH OUTPUT IS DESIRED
 COMPACT CELL-BY-CELL BUDGET FILES WILL BE WRITTEN
 AUXILIARY DATA WILL BE SAVED IN CELL-BY-CELL BUDGET FILES
 HEAD PRINT FORMAT CODE IS   0    DRAWDOWN PRINT FORMAT CODE IS   0
 HEADS WILL BE SAVED ON UNIT   51    DRAWDOWNS WILL BE SAVED ON UNIT    0

 LPF -- LAYER-PROPERTY FLOW PACKAGE, VERSION 7, 5/2/2005
         INPUT READ FROM UNIT   15
 # LPF package for  MODFLOW-2005, generated by Flopy.
 HEAD AT CELLS THAT CONVERT TO DRY= -1.00000E+30
 No named parameters

   LAYER FLAGS:
 LAYER       LAYTYP        LAYAVG         CHANI        LAYVKA        LAYWET
 ---------------------------------------------------------------------------
    1             1             0     1.000E+00             0             0

   INTERPRETATION OF LAYER FLAGS:
                        INTERBLOCK     HORIZONTAL    DATA IN
         LAYER TYPE   TRANSMISSIVITY   ANISOTROPY   ARRAY VKA   WETTABILITY
 LAYER      (LAYTYP)      (LAYAVG)       (CHANI)      (LAYVKA)      (LAYWET)
 ---------------------------------------------------------------------------
    1   CONVERTIBLE      HARMONIC     1.000E+00    VERTICAL K  NON-WETTABLE

 WETTING CAPABILITY IS NOT ACTIVE IN ANY LAYER

    HYD. COND. ALONG ROWS =   10.0000     FOR LAYER   1

      VERTICAL HYD. COND. =   1.00000     FOR LAYER   1

         SPECIFIC STORAGE =  1.000000E-04 FOR LAYER   1

           SPECIFIC YIELD =  0.100000     FOR LAYER   1

 WEL -- WELL PACKAGE, VERSION 7, 5/2/2005 INPUT READ FROM UNIT   20
 # WEL package for  MODFLOW-2005, generated by Flopy.
 No named parameters
 MAXIMUM OF      1 ACTIVE WELLS AT ONE TIME


     0 Well parameters

 GHB -- GENERAL-HEAD BOUNDARY PACKAGE, VERSION 7, 5/2/2005
         INPUT READ FROM UNIT   23
 # GHB package for  MODFLOW-2005, generated by Flopy.
 No named parameters
 MAXIMUM OF     20 ACTIVE GHB CELLS AT ONE TIME


     0 GHB parameters

 PCG -- CONJUGATE-GRADIENT SOLUTION PACKAGE, VERSION 7, 5/2/2005
 # PCG package for  MODFLOW-2005, generated by Flopy.
 MAXIMUM OF     50 CALLS OF SOLUTION ROUTINE
 MAXIMUM OF     30 INTERNAL ITERATIONS PER CALL TO SOLUTION ROUTINE
 MATRIX PRECONDITIONING TYPE :    1



                                    SOLUTION BY THE CONJUGATE-GRADIENT METHOD
                                   -------------------------------------------
                    MAXIMUM NUMBER OF CALLS TO PCG ROUTINE =       50
                        MAXIMUM ITERATIONS PER CALL TO PCG =       30
                               MATRIX PRECONDITIONING TYPE =        1
        RELAXATION FACTOR (ONLY USED WITH PRECOND. TYPE 1) =    0.10000E+01
 PARAMETER OF POLYNOMIAL PRECOND. = 2 (2) OR IS CALCULATED :        0
                         HEAD CHANGE CRITERION FOR CLOSURE =    0.10000E-04
                     RESIDUAL CHANGE CRITERION FOR CLOSURE =    0.10000E-04
            PCG HEAD AND RESIDUAL CHANGE PRINTOUT INTERVAL =      999
     PRINTING FROM SOLVER IS LIMITED(1) OR SUPPRESSED (>1) =        3
                            STEADY-STATE DAMPING PARAMETER =    0.10000E+01
                               TRANSIENT DAMPING PARAMETER =    0.10000E+01
1
                            STRESS PERIOD NO.    1, LENGTH =   1.000000    
                            -----------------------------------------------

                              NUMBER OF TIME STEPS =     1

                               MULTIPLIER FOR DELT =     1.000

                            INITIAL TIME STEP SIZE =   1.000000    

 WELL NO.  LAYER   ROW   COL   STRESS RATE         
 --------------------------------------------------
      1      1      5      5       0.000    

      1 WELL 

 BOUND. NO. LAYER   ROW   COL     STAGE      CONDUCTANCE         
 ----------------------------------------------------------------
      1      1      1      1       10.00          0.6000E+05
      2      1      1     10       10.00          0.6000E+05
      3      1      2      1       10.00          0.6000E+05
      4      1      2     10       10.00          0.6000E+05
      5      1      3      1       10.00          0.6000E+05
      6      1      3     10       10.00          0.6000E+05
      7      1      4      1       10.00          0.6000E+05
      8      1      4     10       10.00          0.6000E+05
      9      1      5      1       10.00          0.6000E+05
     10      1      5     10       10.00          0.6000E+05
     11      1      6      1       10.00          0.6000E+05
     12      1      6     10       10.00          0.6000E+05
     13      1      7      1       10.00          0.6000E+05
     14      1      7     10       10.00          0.6000E+05
     15      1      8      1       10.00          0.6000E+05
     16      1      8     10       10.00          0.6000E+05
     17      1      9      1       10.00          0.6000E+05
     18      1      9     10       10.00          0.6000E+05
     19      1     10      1       10.00          0.6000E+05
     20      1     10     10       10.00          0.6000E+05

     20 GHB CELLS

 SOLVING FOR HEAD 

 OUTPUT CONTROL FOR STRESS PERIOD    1   TIME STEP    1
    PRINT HEAD FOR ALL LAYERS
    SAVE HEAD FOR ALL LAYERS
    PRINT BUDGET
    SAVE BUDGET
1
              HEAD IN LAYER   1 AT END OF TIME STEP   1 IN STRESS PERIOD    1
  ---------------------------------------------------------------------------

            1           2           3           4           5           6           7           8           9          10
 ........................................................................................................................
   1    10.00       10.00       10.00       10.00       10.00       10.00       10.00       10.00       10.00       10.00    
   2    10.00       10.00       10.00       10.00       10.00       10.00       10.00       10.00       10.00       10.00    
   3    10.00       10.00       10.00       10.00       10.00       10.00       10.00       10.00       10.00       10.00    
   4    10.00       10.00       10.00       10.00       10.00       10.00       10.00       10.00       10.00       10.00    
   5    10.00       10.00       10.00       10.00       10.00       10.00       10.00       10.00       10.00       10.00    
   6    10.00       10.00       10.00       10.00       10.00       10.00       10.00       10.00       10.00       10.00    
   7    10.00       10.00       10.00       10.00       10.00       10.00       10.00       10.00       10.00       10.00    
   8    10.00       10.00       10.00       10.00       10.00       10.00       10.00       10.00       10.00       10.00    
   9    10.00       10.00       10.00       10.00       10.00       10.00       10.00       10.00       10.00       10.00    
  10    10.00       10.00       10.00       10.00       10.00       10.00       10.00       10.00       10.00       10.00    

 HEAD WILL BE SAVED ON UNIT   51 AT END OF TIME STEP    1, STRESS PERIOD    1
1
  VOLUMETRIC BUDGET FOR ENTIRE MODEL AT END OF TIME STEP    1, STRESS PERIOD   1
  ------------------------------------------------------------------------------

     CUMULATIVE VOLUMES      L**3       RATES FOR THIS TIME STEP      L**3/T
     ------------------                 ------------------------

           IN:                                      IN:
           ---                                      ---
             STORAGE =           0.0000               STORAGE =           0.0000
       CONSTANT HEAD =           0.0000         CONSTANT HEAD =           0.0000
               WELLS =           0.0000                 WELLS =           0.0000
     HEAD DEP BOUNDS =           0.0000       HEAD DEP BOUNDS =           0.0000

            TOTAL IN =           0.0000              TOTAL IN =           0.0000

          OUT:                                     OUT:
          ----                                     ----
             STORAGE =           0.0000               STORAGE =           0.0000
       CONSTANT HEAD =           0.0000         CONSTANT HEAD =           0.0000
               WELLS =           0.0000                 WELLS =           0.0000
     HEAD DEP BOUNDS =           0.0000       HEAD DEP BOUNDS =           0.0000

           TOTAL OUT =           0.0000             TOTAL OUT =           0.0000

            IN - OUT =           0.0000              IN - OUT =           0.0000

 PERCENT DISCREPANCY =           0.00     PERCENT DISCREPANCY =           0.00






         TIME SUMMARY AT END OF TIME STEP    1 IN STRESS PERIOD    1
                    SECONDS     MINUTES      HOURS       DAYS        YEARS
                    -----------------------------------------------------------
   TIME STEP LENGTH  86400.      1440.0      24.000      1.0000     2.73785E-03
 STRESS PERIOD TIME  86400.      1440.0      24.000      1.0000     2.73785E-03
         TOTAL TIME  86400.      1440.0      24.000      1.0000     2.73785E-03
1
1
                            STRESS PERIOD NO.    2, LENGTH =   100.0000    
                            -----------------------------------------------

                              NUMBER OF TIME STEPS =   100

                               MULTIPLIER FOR DELT =     1.000

                            INITIAL TIME STEP SIZE =   1.000000    

 WELL NO.  LAYER   ROW   COL   STRESS RATE         
 --------------------------------------------------
      1      1      5      5       0.000    

      1 WELL 

 BOUND. NO. LAYER   ROW   COL     STAGE      CONDUCTANCE         
 ----------------------------------------------------------------
      1      1      1      1       10.00          0.6000E+05
      2      1      1     10       0.000          0.5000E+05
      3      1      2      1       10.00          0.6000E+05
      4      1      2     10       0.000          0.5000E+05
      5      1      3      1       10.00          0.6000E+05
      6      1      3     10       0.000          0.5000E+05
      7      1      4      1       10.00          0.6000E+05
      8      1      4     10       0.000          0.5000E+05
      9      1      5      1       10.00          0.6000E+05
     10      1      5     10       0.000          0.5000E+05
     11      1      6      1       10.00          0.6000E+05
     12      1      6     10       0.000          0.5000E+05
     13      1      7      1       10.00          0.6000E+05
     14      1      7     10       0.000          0.5000E+05
     15      1      8      1       10.00          0.6000E+05
     16      1      8     10       0.000          0.5000E+05
     17      1      9      1       10.00          0.6000E+05
     18      1      9     10       0.000          0.5000E+05
     19      1     10      1       10.00          0.6000E+05
     20      1     10     10       0.000          0.5000E+05

     20 GHB CELLS

 SOLVING FOR HEAD 

 OUTPUT CONTROL FOR STRESS PERIOD    2   TIME STEP    1
    PRINT HEAD FOR ALL LAYERS
    SAVE HEAD FOR ALL LAYERS
    PRINT BUDGET
    SAVE BUDGET
1
              HEAD IN LAYER   1 AT END OF TIME STEP   1 IN STRESS PERIOD    2
  ---------------------------------------------------------------------------

            1           2           3           4           5           6           7           8           9          10
 ........................................................................................................................
   1    9.997       9.622       9.208       8.716       8.096       7.284       6.202       4.739       2.751      3.7098E-02
   2    9.997       9.622       9.208       8.716       8.096       7.284       6.202       4.739       2.751      3.7098E-02
   3    9.997       9.622       9.208       8.716       8.096       7.284       6.202       4.739       2.751      3.7098E-02
   4    9.997       9.622       9.208       8.716       8.096       7.284       6.202       4.739       2.751      3.7098E-02
   5    9.997       9.622       9.208       8.716       8.096       7.284       6.202       4.739       2.751      3.7098E-02
   6    9.997       9.622       9.208       8.716       8.096       7.284       6.202       4.739       2.751      3.7098E-02
   7    9.997       9.622       9.208       8.716       8.096       7.284       6.202       4.739       2.751      3.7098E-02
   8    9.997       9.622       9.208       8.716       8.096       7.284       6.202       4.739       2.751      3.7098E-02
   9    9.997       9.622       9.208       8.716       8.096       7.284       6.202       4.739       2.751      3.7098E-02
  10    9.997       9.622       9.208       8.716       8.096       7.284       6.202       4.739       2.751      3.7098E-02

 HEAD WILL BE SAVED ON UNIT   51 AT END OF TIME STEP    1, STRESS PERIOD    2
1
  VOLUMETRIC BUDGET FOR ENTIRE MODEL AT END OF TIME STEP    1, STRESS PERIOD   2
  ------------------------------------------------------------------------------

     CUMULATIVE VOLUMES      L**3       RATES FOR THIS TIME STEP      L**3/T
     ------------------                 ------------------------

           IN:                                      IN:
           ---                                      ---
             STORAGE =       16674.1855               STORAGE =       16674.1855
       CONSTANT HEAD =           0.0000         CONSTANT HEAD =           0.0000
               WELLS =           0.0000                 WELLS =           0.0000
     HEAD DEP BOUNDS =        1874.8799       HEAD DEP BOUNDS =        1874.8799

            TOTAL IN =       18549.0664              TOTAL IN =       18549.0664

          OUT:                                     OUT:
          ----                                     ----
             STORAGE =           0.0000               STORAGE =           0.0000
       CONSTANT HEAD =           0.0000         CONSTANT HEAD =           0.0000
               WELLS =           0.0000                 WELLS =           0.0000
     HEAD DEP BOUNDS =       18549.0664       HEAD DEP BOUNDS =       18549.0664

           TOTAL OUT =       18549.0664             TOTAL OUT =       18549.0664

            IN - OUT =           0.0000              IN - OUT =           0.0000

 PERCENT DISCREPANCY =           0.00     PERCENT DISCREPANCY =           0.00






         TIME SUMMARY AT END OF TIME STEP    1 IN STRESS PERIOD    2
                    SECONDS     MINUTES      HOURS       DAYS        YEARS
                    -----------------------------------------------------------
   TIME STEP LENGTH  86400.      1440.0      24.000      1.0000     2.73785E-03
 STRESS PERIOD TIME  86400.      1440.0      24.000      1.0000     2.73785E-03
         TOTAL TIME 1.72800E+05  2880.0      48.000      2.0000     5.47570E-03
1

 SOLVING FOR HEAD 

 OUTPUT CONTROL FOR STRESS PERIOD    2   TIME STEP    2
    PRINT HEAD FOR ALL LAYERS
    SAVE HEAD FOR ALL LAYERS
    PRINT BUDGET
    SAVE BUDGET
1
              HEAD IN LAYER   1 AT END OF TIME STEP   2 IN STRESS PERIOD    2
  ---------------------------------------------------------------------------

            1           2           3           4           5           6           7           8           9          10
 ........................................................................................................................
   1    9.994       9.279       8.529       7.712       6.794       5.745       4.543       3.175       1.651      1.6365E-02
   2    9.994       9.279       8.529       7.712       6.794       5.745       4.543       3.175       1.651      1.6365E-02
   3    9.994       9.279       8.529       7.712       6.794       5.745       4.543       3.175       1.651      1.6365E-02
   4    9.994       9.279       8.529       7.712       6.794       5.745       4.543       3.175       1.651      1.6365E-02
   5    9.994       9.279       8.529       7.712       6.794       5.745       4.543       3.175       1.651      1.6365E-02
   6    9.994       9.279       8.529       7.712       6.794       5.745       4.543       3.175       1.651      1.6365E-02
   7    9.994       9.279       8.529       7.712       6.794       5.745       4.543       3.175       1.651      1.6365E-02
   8    9.994       9.279       8.529       7.712       6.794       5.745       4.543       3.175       1.651      1.6365E-02
   9    9.994       9.279       8.529       7.712       6.794       5.745       4.543       3.175       1.651      1.6365E-02
  10    9.994       9.279       8.529       7.712       6.794       5.745       4.543       3.175       1.651      1.6365E-02

 HEAD WILL BE SAVED ON UNIT   51 AT END OF TIME STEP    2, STRESS PERIOD    2
1
  VOLUMETRIC BUDGET FOR ENTIRE MODEL AT END OF TIME STEP    2, STRESS PERIOD   2
  ------------------------------------------------------------------------------

     CUMULATIVE VOLUMES      L**3       RATES FOR THIS TIME STEP      L**3/T
     ------------------                 ------------------------

           IN:                                      IN:
           ---                                      ---
             STORAGE =       21281.2266               STORAGE =        4607.0415
       CONSTANT HEAD =           0.0000         CONSTANT HEAD =           0.0000
               WELLS =           0.0000                 WELLS =           0.0000
     HEAD DEP BOUNDS =        5449.8223       HEAD DEP BOUNDS =        3574.9421

            TOTAL IN =       26731.0488              TOTAL IN =        8181.9834

          OUT:                                     OUT:
          ----                                     ----
             STORAGE =           0.0000               STORAGE =           0.0000
       CONSTANT HEAD =           0.0000         CONSTANT HEAD =           0.0000
               WELLS =           0.0000                 WELLS =           0.0000
     HEAD DEP BOUNDS =       26731.3613       HEAD DEP BOUNDS =        8182.2954

           TOTAL OUT =       26731.3613             TOTAL OUT =        8182.2954

            IN - OUT =          -0.3125              IN - OUT =          -0.3120

 PERCENT DISCREPANCY =          -0.00     PERCENT DISCREPANCY =          -0.00






         TIME SUMMARY AT END OF TIME STEP    2 IN STRESS PERIOD    2
                    SECONDS     MINUTES      HOURS       DAYS        YEARS
                    -----------------------------------------------------------
   TIME STEP LENGTH  86400.      1440.0      24.000      1.0000     2.73785E-03
 STRESS PERIOD TIME 1.72800E+05  2880.0      48.000      2.0000     5.47570E-03
         TOTAL TIME 2.59200E+05  4320.0      72.000      3.0000     8.21355E-03
1

 SOLVING FOR HEAD 

 OUTPUT CONTROL FOR STRESS PERIOD    2   TIME STEP    3
    PRINT HEAD FOR ALL LAYERS
    SAVE HEAD FOR ALL LAYERS
    PRINT BUDGET
    SAVE BUDGET
1
              HEAD IN LAYER   1 AT END OF TIME STEP   3 IN STRESS PERIOD    2
  ---------------------------------------------------------------------------

            1           2           3           4           5           6           7           8           9          10
 ........................................................................................................................
   1    9.992       9.075       8.138       7.162       6.131       5.033       3.864       2.628       1.336      1.3232E-02
   2    9.992       9.075       8.138       7.162       6.131       5.033       3.864       2.628       1.336      1.3232E-02
   3    9.992       9.075       8.138       7.162       6.131       5.033       3.864       2.628       1.336      1.3232E-02
   4    9.992       9.075       8.138       7.162       6.131       5.033       3.864       2.628       1.336      1.3232E-02
   5    9.992       9.075       8.138       7.162       6.131       5.033       3.864       2.628       1.336      1.3232E-02
   6    9.992       9.075       8.138       7.162       6.131       5.033       3.864       2.628       1.336      1.3232E-02
   7    9.992       9.075       8.138       7.162       6.131       5.033       3.864       2.628       1.336      1.3232E-02
   8    9.992       9.075       8.138       7.162       6.131       5.033       3.864       2.628       1.336      1.3232E-02
   9    9.992       9.075       8.138       7.162       6.131       5.033       3.864       2.628       1.336      1.3232E-02
  10    9.992       9.075       8.138       7.162       6.131       5.033       3.864       2.628       1.336      1.3232E-02

 HEAD WILL BE SAVED ON UNIT   51 AT END OF TIME STEP    3, STRESS PERIOD    2
1
  VOLUMETRIC BUDGET FOR ENTIRE MODEL AT END OF TIME STEP    3, STRESS PERIOD   2
  ------------------------------------------------------------------------------

     CUMULATIVE VOLUMES      L**3       RATES FOR THIS TIME STEP      L**3/T
     ------------------                 ------------------------

           IN:                                      IN:
           ---                                      ---
             STORAGE =       23313.6016               STORAGE =        2032.3756
       CONSTANT HEAD =           0.0000         CONSTANT HEAD =           0.0000
               WELLS =           0.0000                 WELLS =           0.0000
     HEAD DEP BOUNDS =       10033.6650       HEAD DEP BOUNDS =        4583.8428

            TOTAL IN =       33347.2656              TOTAL IN =        6616.2183

          OUT:                                     OUT:
          ----                                     ----
             STORAGE =           0.0000               STORAGE =           0.0000
       CONSTANT HEAD =           0.0000         CONSTANT HEAD =           0.0000
               WELLS =           0.0000                 WELLS =           0.0000
     HEAD DEP BOUNDS =       33347.4336       HEAD DEP BOUNDS =        6616.0723

           TOTAL OUT =       33347.4336             TOTAL OUT =        6616.0723

            IN - OUT =          -0.1680              IN - OUT =           0.1460

 PERCENT DISCREPANCY =          -0.00     PERCENT DISCREPANCY =           0.00






         TIME SUMMARY AT END OF TIME STEP    3 IN STRESS PERIOD    2
                    SECONDS     MINUTES      HOURS       DAYS        YEARS
                    -----------------------------------------------------------
   TIME STEP LENGTH  86400.      1440.0      24.000      1.0000     2.73785E-03
 STRESS PERIOD TIME 2.59200E+05  4320.0      72.000      3.0000     8.21355E-03
         TOTAL TIME 3.45600E+05  5760.0      96.000      4.0000     1.09514E-02
1

 SOLVING FOR HEAD 

 OUTPUT CONTROL FOR STRESS PERIOD    2   TIME STEP    4
    PRINT HEAD FOR ALL LAYERS
    SAVE HEAD FOR ALL LAYERS
    PRINT BUDGET
    SAVE BUDGET
1
              HEAD IN LAYER   1 AT END OF TIME STEP   4 IN STRESS PERIOD    2
  ---------------------------------------------------------------------------

            1           2           3           4           5           6           7           8           9          10
 ........................................................................................................................
   1    9.992       8.972       7.943       6.894       5.819       4.712       3.573       2.405       1.215      1.2026E-02
   2    9.992       8.972       7.943       6.894       5.819       4.712       3.573       2.405       1.215      1.2026E-02
   3    9.992       8.972       7.943       6.894       5.819       4.712       3.573       2.405       1.215      1.2026E-02
   4    9.992       8.972       7.943       6.894       5.819       4.712       3.573       2.405       1.215      1.2026E-02
   5    9.992       8.972       7.943       6.894       5.819       4.712       3.573       2.405       1.215      1.2026E-02
   6    9.992       8.972       7.943       6.894       5.819       4.712       3.573       2.405       1.215      1.2026E-02
   7    9.992       8.972       7.943       6.894       5.819       4.712       3.573       2.405       1.215      1.2026E-02
   8    9.992       8.972       7.943       6.894       5.819       4.712       3.573       2.405       1.215      1.2026E-02
   9    9.992       8.972       7.943       6.894       5.819       4.712       3.573       2.405       1.215      1.2026E-02
  10    9.992       8.972       7.943       6.894       5.819       4.712       3.573       2.405       1.215      1.2026E-02

 HEAD WILL BE SAVED ON UNIT   51 AT END OF TIME STEP    4, STRESS PERIOD    2
1
  VOLUMETRIC BUDGET FOR ENTIRE MODEL AT END OF TIME STEP    4, STRESS PERIOD   2
  ------------------------------------------------------------------------------

     CUMULATIVE VOLUMES      L**3       RATES FOR THIS TIME STEP      L**3/T
     ------------------                 ------------------------

           IN:                                      IN:
           ---                                      ---
             STORAGE =       24231.8945               STORAGE =         918.2937
       CONSTANT HEAD =           0.0000         CONSTANT HEAD =           0.0000
               WELLS =           0.0000                 WELLS =           0.0000
     HEAD DEP BOUNDS =       15128.3838       HEAD DEP BOUNDS =        5094.7188

            TOTAL IN =       39360.2773              TOTAL IN =        6013.0127

          OUT:                                     OUT:
          ----                                     ----
             STORAGE =           0.0000               STORAGE =           0.0000
       CONSTANT HEAD =           0.0000         CONSTANT HEAD =           0.0000
               WELLS =           0.0000                 WELLS =           0.0000
     HEAD DEP BOUNDS =       39360.5156       HEAD DEP BOUNDS =        6013.0825

           TOTAL OUT =       39360.5156             TOTAL OUT =        6013.0825

            IN - OUT =          -0.2383              IN - OUT =      -6.9824E-02

 PERCENT DISCREPANCY =          -0.00     PERCENT DISCREPANCY =          -0.00






         TIME SUMMARY AT END OF TIME STEP    4 IN STRESS PERIOD    2
                    SECONDS     MINUTES      HOURS       DAYS        YEARS
                    -----------------------------------------------------------
   TIME STEP LENGTH  86400.      1440.0      24.000      1.0000     2.73785E-03
 STRESS PERIOD TIME 3.45600E+05  5760.0      96.000      4.0000     1.09514E-02
         TOTAL TIME 4.32000E+05  7200.0      120.00      5.0000     1.36893E-02
1

 SOLVING FOR HEAD 

 OUTPUT CONTROL FOR STRESS PERIOD    2   TIME STEP    5
    PRINT HEAD FOR ALL LAYERS
    SAVE HEAD FOR ALL LAYERS
    PRINT BUDGET
    SAVE BUDGET
1
              HEAD IN LAYER   1 AT END OF TIME STEP   5 IN STRESS PERIOD    2
  ---------------------------------------------------------------------------

            1           2           3           4           5           6           7           8           9          10
 ........................................................................................................................
   1    9.991       8.924       7.851       6.769       5.675       4.567       3.444       2.308       1.162      1.1509E-02
   2    9.991       8.924       7.851       6.769       5.675       4.567       3.444       2.308       1.162      1.1509E-02
   3    9.991       8.924       7.851       6.769       5.675       4.567       3.444       2.308       1.162      1.1509E-02
   4    9.991       8.924       7.851       6.769       5.675       4.567       3.444       2.308       1.162      1.1509E-02
   5    9.991       8.924       7.851       6.769       5.675       4.567       3.444       2.308       1.162      1.1509E-02
   6    9.991       8.924       7.851       6.769       5.675       4.567       3.444       2.308       1.162      1.1509E-02
   7    9.991       8.924       7.851       6.769       5.675       4.567       3.444       2.308       1.162      1.1509E-02
   8    9.991       8.924       7.851       6.769       5.675       4.567       3.444       2.308       1.162      1.1509E-02
   9    9.991       8.924       7.851       6.769       5.675       4.567       3.444       2.308       1.162      1.1509E-02
  10    9.991       8.924       7.851       6.769       5.675       4.567       3.444       2.308       1.162      1.1509E-02

 HEAD WILL BE SAVED ON UNIT   51 AT END OF TIME STEP    5, STRESS PERIOD    2
1
  VOLUMETRIC BUDGET FOR ENTIRE MODEL AT END OF TIME STEP    5, STRESS PERIOD   2
  ------------------------------------------------------------------------------

     CUMULATIVE VOLUMES      L**3       RATES FOR THIS TIME STEP      L**3/T
     ------------------                 ------------------------

           IN:                                      IN:
           ---                                      ---
             STORAGE =       24648.6016               STORAGE =         416.7075
       CONSTANT HEAD =           0.0000         CONSTANT HEAD =           0.0000
               WELLS =           0.0000                 WELLS =           0.0000
     HEAD DEP BOUNDS =       20466.1270       HEAD DEP BOUNDS =        5337.7427

            TOTAL IN =       45114.7266              TOTAL IN =        5754.4502

          OUT:                                     OUT:
          ----                                     ----
             STORAGE =           0.0000               STORAGE =           0.0000
       CONSTANT HEAD =           0.0000         CONSTANT HEAD =           0.0000
               WELLS =           0.0000                 WELLS =           0.0000
     HEAD DEP BOUNDS =       45114.8359       HEAD DEP BOUNDS =        5754.3213

           TOTAL OUT =       45114.8359             TOTAL OUT =        5754.3213

            IN - OUT =          -0.1094              IN - OUT =           0.1289

 PERCENT DISCREPANCY =          -0.00     PERCENT DISCREPANCY =           0.00






         TIME SUMMARY AT END OF TIME STEP    5 IN STRESS PERIOD    2
                    SECONDS     MINUTES      HOURS       DAYS        YEARS
                    -----------------------------------------------------------
   TIME STEP LENGTH  86400.      1440.0      24.000      1.0000     2.73785E-03
 STRESS PERIOD TIME 4.32000E+05  7200.0      120.00      5.0000     1.36893E-02
         TOTAL TIME 5.18400E+05  8640.0      144.00      6.0000     1.64271E-02
1

 SOLVING FOR HEAD 

 OUTPUT CONTROL FOR STRESS PERIOD    2   TIME STEP    6
    PRINT HEAD FOR ALL LAYERS
    SAVE HEAD FOR ALL LAYERS
    PRINT BUDGET
    SAVE BUDGET
1
              HEAD IN LAYER   1 AT END OF TIME STEP   6 IN STRESS PERIOD    2
  ---------------------------------------------------------------------------

            1           2           3           4           5           6           7           8           9          10
 ........................................................................................................................
   1    9.991       8.901       7.809       6.712       5.610       4.501       3.386       2.265       1.139      1.1278E-02
   2    9.991       8.901       7.809       6.712       5.610       4.501       3.386       2.265       1.139      1.1278E-02
   3    9.991       8.901       7.809       6.712       5.610       4.501       3.386       2.265       1.139      1.1278E-02
   4    9.991       8.901       7.809       6.712       5.610       4.501       3.386       2.265       1.139      1.1278E-02
   5    9.991       8.901       7.809       6.712       5.610       4.501       3.386       2.265       1.139      1.1278E-02
   6    9.991       8.901       7.809       6.712       5.610       4.501       3.386       2.265       1.139      1.1278E-02
   7    9.991       8.901       7.809       6.712       5.610       4.501       3.386       2.265       1.139      1.1278E-02
   8    9.991       8.901       7.809       6.712       5.610       4.501       3.386       2.265       1.139      1.1278E-02
   9    9.991       8.901       7.809       6.712       5.610       4.501       3.386       2.265       1.139      1.1278E-02
  10    9.991       8.901       7.809       6.712       5.610       4.501       3.386       2.265       1.139      1.1278E-02

 HEAD WILL BE SAVED ON UNIT   51 AT END OF TIME STEP    6, STRESS PERIOD    2
1
  VOLUMETRIC BUDGET FOR ENTIRE MODEL AT END OF TIME STEP    6, STRESS PERIOD   2
  ------------------------------------------------------------------------------

     CUMULATIVE VOLUMES      L**3       RATES FOR THIS TIME STEP      L**3/T
     ------------------                 ------------------------

           IN:                                      IN:
           ---                                      ---
             STORAGE =       24837.8555               STORAGE =         189.2534
       CONSTANT HEAD =           0.0000         CONSTANT HEAD =           0.0000
               WELLS =           0.0000                 WELLS =           0.0000
     HEAD DEP BOUNDS =       25915.9922       HEAD DEP BOUNDS =        5449.8657

            TOTAL IN =       50753.8477              TOTAL IN =        5639.1191

          OUT:                                     OUT:
          ----                                     ----
             STORAGE =           0.0000               STORAGE =           0.0000
       CONSTANT HEAD =           0.0000         CONSTANT HEAD =           0.0000
               WELLS =           0.0000                 WELLS =           0.0000
     HEAD DEP BOUNDS =       50754.0273       HEAD DEP BOUNDS =        5639.1919

           TOTAL OUT =       50754.0273             TOTAL OUT =        5639.1919

            IN - OUT =          -0.1797              IN - OUT =      -7.2754E-02

 PERCENT DISCREPANCY =          -0.00     PERCENT DISCREPANCY =          -0.00






         TIME SUMMARY AT END OF TIME STEP    6 IN STRESS PERIOD    2
                    SECONDS     MINUTES      HOURS       DAYS        YEARS
                    -----------------------------------------------------------
   TIME STEP LENGTH  86400.      1440.0      24.000      1.0000     2.73785E-03
 STRESS PERIOD TIME 5.18400E+05  8640.0      144.00      6.0000     1.64271E-02
         TOTAL TIME 6.04800E+05  10080.      168.00      7.0000     1.91650E-02
1

 SOLVING FOR HEAD 

 OUTPUT CONTROL FOR STRESS PERIOD    2   TIME STEP    7
    PRINT HEAD FOR ALL LAYERS
    SAVE HEAD FOR ALL LAYERS
    PRINT BUDGET
    SAVE BUDGET
1
              HEAD IN LAYER   1 AT END OF TIME STEP   7 IN STRESS PERIOD    2
  ---------------------------------------------------------------------------

            1           2           3           4           5           6           7           8           9          10
 ........................................................................................................................
   1    9.991       8.891       7.789       6.686       5.580       4.471       3.359       2.245       1.129      1.1175E-02
   2    9.991       8.891       7.789       6.686       5.580       4.471       3.359       2.245       1.129      1.1175E-02
   3    9.991       8.891       7.789       6.686       5.580       4.471       3.359       2.245       1.129      1.1175E-02
   4    9.991       8.891       7.789       6.686       5.580       4.471       3.359       2.245       1.129      1.1175E-02
   5    9.991       8.891       7.789       6.686       5.580       4.471       3.359       2.245       1.129      1.1175E-02
   6    9.991       8.891       7.789       6.686       5.580       4.471       3.359       2.245       1.129      1.1175E-02
   7    9.991       8.891       7.789       6.686       5.580       4.471       3.359       2.245       1.129      1.1175E-02
   8    9.991       8.891       7.789       6.686       5.580       4.471       3.359       2.245       1.129      1.1175E-02
   9    9.991       8.891       7.789       6.686       5.580       4.471       3.359       2.245       1.129      1.1175E-02
  10    9.991       8.891       7.789       6.686       5.580       4.471       3.359       2.245       1.129      1.1175E-02

 HEAD WILL BE SAVED ON UNIT   51 AT END OF TIME STEP    7, STRESS PERIOD    2
1
  VOLUMETRIC BUDGET FOR ENTIRE MODEL AT END OF TIME STEP    7, STRESS PERIOD   2
  ------------------------------------------------------------------------------

     CUMULATIVE VOLUMES      L**3       RATES FOR THIS TIME STEP      L**3/T
     ------------------                 ------------------------

           IN:                                      IN:
           ---                                      ---
             STORAGE =       24923.8223               STORAGE =          85.9660
       CONSTANT HEAD =           0.0000         CONSTANT HEAD =           0.0000
               WELLS =           0.0000                 WELLS =           0.0000
     HEAD DEP BOUNDS =       31417.1602       HEAD DEP BOUNDS =        5501.1670

            TOTAL IN =       56340.9844              TOTAL IN =        5587.1328

          OUT:                                     OUT:
          ----                                     ----
             STORAGE =           0.0000               STORAGE =           0.0000
       CONSTANT HEAD =           0.0000         CONSTANT HEAD =           0.0000
               WELLS =           0.0000                 WELLS =           0.0000
     HEAD DEP BOUNDS =       56341.3281       HEAD DEP BOUNDS =        5587.2998

           TOTAL OUT =       56341.3281             TOTAL OUT =        5587.2998

            IN - OUT =          -0.3438              IN - OUT =          -0.1670

 PERCENT DISCREPANCY =          -0.00     PERCENT DISCREPANCY =          -0.00






         TIME SUMMARY AT END OF TIME STEP    7 IN STRESS PERIOD    2
                    SECONDS     MINUTES      HOURS       DAYS        YEARS
                    -----------------------------------------------------------
   TIME STEP LENGTH  86400.      1440.0      24.000      1.0000     2.73785E-03
 STRESS PERIOD TIME 6.04800E+05  10080.      168.00      7.0000     1.91650E-02
         TOTAL TIME 6.91200E+05  11520.      192.00      8.0000     2.19028E-02
1

 SOLVING FOR HEAD 

 OUTPUT CONTROL FOR STRESS PERIOD    2   TIME STEP    8
    PRINT HEAD FOR ALL LAYERS
    SAVE HEAD FOR ALL LAYERS
    PRINT BUDGET
    SAVE BUDGET
1
              HEAD IN LAYER   1 AT END OF TIME STEP   8 IN STRESS PERIOD    2
  ---------------------------------------------------------------------------

            1           2           3           4           5           6           7           8           9          10
 ........................................................................................................................
   1    9.991       8.886       7.780       6.674       5.567       4.458       3.348       2.236       1.124      1.1128E-02
   2    9.991       8.886       7.780       6.674       5.567       4.458       3.348       2.236       1.124      1.1128E-02
   3    9.991       8.886       7.780       6.674       5.567       4.458       3.348       2.236       1.124      1.1128E-02
   4    9.991       8.886       7.780       6.674       5.567       4.458       3.348       2.236       1.124      1.1128E-02
   5    9.991       8.886       7.780       6.674       5.567       4.458       3.348       2.236       1.124      1.1128E-02
   6    9.991       8.886       7.780       6.674       5.567       4.458       3.348       2.236       1.124      1.1128E-02
   7    9.991       8.886       7.780       6.674       5.567       4.458       3.348       2.236       1.124      1.1128E-02
   8    9.991       8.886       7.780       6.674       5.567       4.458       3.348       2.236       1.124      1.1128E-02
   9    9.991       8.886       7.780       6.674       5.567       4.458       3.348       2.236       1.124      1.1128E-02
  10    9.991       8.886       7.780       6.674       5.567       4.458       3.348       2.236       1.124      1.1128E-02

 HEAD WILL BE SAVED ON UNIT   51 AT END OF TIME STEP    8, STRESS PERIOD    2
1
  VOLUMETRIC BUDGET FOR ENTIRE MODEL AT END OF TIME STEP    8, STRESS PERIOD   2
  ------------------------------------------------------------------------------

     CUMULATIVE VOLUMES      L**3       RATES FOR THIS TIME STEP      L**3/T
     ------------------                 ------------------------

           IN:                                      IN:
           ---                                      ---
             STORAGE =       24962.8730               STORAGE =          39.0508
       CONSTANT HEAD =           0.0000         CONSTANT HEAD =           0.0000
               WELLS =           0.0000                 WELLS =           0.0000
     HEAD DEP BOUNDS =       36941.6992       HEAD DEP BOUNDS =        5524.5376

            TOTAL IN =       61904.5703              TOTAL IN =        5563.5884

          OUT:                                     OUT:
          ----                                     ----
             STORAGE =           0.0000               STORAGE =           0.0000
       CONSTANT HEAD =           0.0000         CONSTANT HEAD =           0.0000
               WELLS =           0.0000                 WELLS =           0.0000
     HEAD DEP BOUNDS =       61905.1250       HEAD DEP BOUNDS =        5563.7974

           TOTAL OUT =       61905.1250             TOTAL OUT =        5563.7974

            IN - OUT =          -0.5547              IN - OUT =          -0.2090

 PERCENT DISCREPANCY =          -0.00     PERCENT DISCREPANCY =          -0.00






         TIME SUMMARY AT END OF TIME STEP    8 IN STRESS PERIOD    2
                    SECONDS     MINUTES      HOURS       DAYS        YEARS
                    -----------------------------------------------------------
   TIME STEP LENGTH  86400.      1440.0      24.000      1.0000     2.73785E-03
 STRESS PERIOD TIME 6.91200E+05  11520.      192.00      8.0000     2.19028E-02
         TOTAL TIME 7.77600E+05  12960.      216.00      9.0000     2.46407E-02
1

 SOLVING FOR HEAD 

 OUTPUT CONTROL FOR STRESS PERIOD    2   TIME STEP    9
    PRINT HEAD FOR ALL LAYERS
    SAVE HEAD FOR ALL LAYERS
    PRINT BUDGET
    SAVE BUDGET
1
              HEAD IN LAYER   1 AT END OF TIME STEP   9 IN STRESS PERIOD    2
  ---------------------------------------------------------------------------

            1           2           3           4           5           6           7           8           9          10
 ........................................................................................................................
   1    9.991       8.884       7.776       6.669       5.560       4.452       3.342       2.232       1.122      1.1106E-02
   2    9.991       8.884       7.776       6.669       5.560       4.452       3.342       2.232       1.122      1.1106E-02
   3    9.991       8.884       7.776       6.669       5.560       4.452       3.342       2.232       1.122      1.1106E-02
   4    9.991       8.884       7.776       6.669       5.560       4.452       3.342       2.232       1.122      1.1106E-02
   5    9.991       8.884       7.776       6.669       5.560       4.452       3.342       2.232       1.122      1.1106E-02
   6    9.991       8.884       7.776       6.669       5.560       4.452       3.342       2.232       1.122      1.1106E-02
   7    9.991       8.884       7.776       6.669       5.560       4.452       3.342       2.232       1.122      1.1106E-02
   8    9.991       8.884       7.776       6.669       5.560       4.452       3.342       2.232       1.122      1.1106E-02
   9    9.991       8.884       7.776       6.669       5.560       4.452       3.342       2.232       1.122      1.1106E-02
  10    9.991       8.884       7.776       6.669       5.560       4.452       3.342       2.232       1.122      1.1106E-02

 HEAD WILL BE SAVED ON UNIT   51 AT END OF TIME STEP    9, STRESS PERIOD    2
1
  VOLUMETRIC BUDGET FOR ENTIRE MODEL AT END OF TIME STEP    9, STRESS PERIOD   2
  ------------------------------------------------------------------------------

     CUMULATIVE VOLUMES      L**3       RATES FOR THIS TIME STEP      L**3/T
     ------------------                 ------------------------

           IN:                                      IN:
           ---                                      ---
             STORAGE =       24980.6113               STORAGE =          17.7384
       CONSTANT HEAD =           0.0000         CONSTANT HEAD =           0.0000
               WELLS =           0.0000                 WELLS =           0.0000
     HEAD DEP BOUNDS =       42476.8672       HEAD DEP BOUNDS =        5535.1660

            TOTAL IN =       67457.4766              TOTAL IN =        5552.9043

          OUT:                                     OUT:
          ----                                     ----
             STORAGE =           0.0000               STORAGE =           0.0000
       CONSTANT HEAD =           0.0000         CONSTANT HEAD =           0.0000
               WELLS =           0.0000                 WELLS =           0.0000
     HEAD DEP BOUNDS =       67458.2578       HEAD DEP BOUNDS =        5553.1333

           TOTAL OUT =       67458.2578             TOTAL OUT =        5553.1333

            IN - OUT =          -0.7812              IN - OUT =          -0.2290

 PERCENT DISCREPANCY =          -0.00     PERCENT DISCREPANCY =          -0.00






         TIME SUMMARY AT END OF TIME STEP    9 IN STRESS PERIOD    2
                    SECONDS     MINUTES      HOURS       DAYS        YEARS
                    -----------------------------------------------------------
   TIME STEP LENGTH  86400.      1440.0      24.000      1.0000     2.73785E-03
 STRESS PERIOD TIME 7.77600E+05  12960.      216.00      9.0000     2.46407E-02
         TOTAL TIME 8.64000E+05  14400.      240.00      10.000     2.73785E-02
1

 SOLVING FOR HEAD 

 OUTPUT CONTROL FOR STRESS PERIOD    2   TIME STEP   10
    PRINT HEAD FOR ALL LAYERS
    SAVE HEAD FOR ALL LAYERS
    PRINT BUDGET
    SAVE BUDGET
1
              HEAD IN LAYER   1 AT END OF TIME STEP  10 IN STRESS PERIOD    2
  ---------------------------------------------------------------------------

            1           2           3           4           5           6           7           8           9          10
 ........................................................................................................................
   1    9.991       8.883       7.775       6.666       5.558       4.449       3.340       2.230       1.121      1.1097E-02
   2    9.991       8.883       7.775       6.666       5.558       4.449       3.340       2.230       1.121      1.1097E-02
   3    9.991       8.883       7.775       6.666       5.558       4.449       3.340       2.230       1.121      1.1097E-02
   4    9.991       8.883       7.775       6.666       5.558       4.449       3.340       2.230       1.121      1.1097E-02
   5    9.991       8.883       7.775       6.666       5.558       4.449       3.340       2.230       1.121      1.1097E-02
   6    9.991       8.883       7.775       6.666       5.558       4.449       3.340       2.230       1.121      1.1097E-02
   7    9.991       8.883       7.775       6.666       5.558       4.449       3.340       2.230       1.121      1.1097E-02
   8    9.991       8.883       7.775       6.666       5.558       4.449       3.340       2.230       1.121      1.1097E-02
   9    9.991       8.883       7.775       6.666       5.558       4.449       3.340       2.230       1.121      1.1097E-02
  10    9.991       8.883       7.775       6.666       5.558       4.449       3.340       2.230       1.121      1.1097E-02

 HEAD WILL BE SAVED ON UNIT   51 AT END OF TIME STEP   10, STRESS PERIOD    2
1
  VOLUMETRIC BUDGET FOR ENTIRE MODEL AT END OF TIME STEP   10, STRESS PERIOD   2
  ------------------------------------------------------------------------------

     CUMULATIVE VOLUMES      L**3       RATES FOR THIS TIME STEP      L**3/T
     ------------------                 ------------------------

           IN:                                      IN:
           ---                                      ---
             STORAGE =       24988.6699               STORAGE =           8.0585
       CONSTANT HEAD =           0.0000         CONSTANT HEAD =           0.0000
               WELLS =           0.0000                 WELLS =           0.0000
     HEAD DEP BOUNDS =       48016.8633       HEAD DEP BOUNDS =        5539.9956

            TOTAL IN =       73005.5312              TOTAL IN =        5548.0542

          OUT:                                     OUT:
          ----                                     ----
             STORAGE =           0.0000               STORAGE =           0.0000
       CONSTANT HEAD =           0.0000         CONSTANT HEAD =           0.0000
               WELLS =           0.0000                 WELLS =           0.0000
     HEAD DEP BOUNDS =       73006.5469       HEAD DEP BOUNDS =        5548.2915

           TOTAL OUT =       73006.5469             TOTAL OUT =        5548.2915

            IN - OUT =          -1.0156              IN - OUT =          -0.2373

 PERCENT DISCREPANCY =          -0.00     PERCENT DISCREPANCY =          -0.00






         TIME SUMMARY AT END OF TIME STEP   10 IN STRESS PERIOD    2
                    SECONDS     MINUTES      HOURS       DAYS        YEARS
                    -----------------------------------------------------------
   TIME STEP LENGTH  86400.      1440.0      24.000      1.0000     2.73785E-03
 STRESS PERIOD TIME 8.64000E+05  14400.      240.00      10.000     2.73785E-02
         TOTAL TIME 9.50400E+05  15840.      264.00      11.000     3.01164E-02
1

 SOLVING FOR HEAD 

 OUTPUT CONTROL FOR STRESS PERIOD    2   TIME STEP   11
    PRINT HEAD FOR ALL LAYERS
    SAVE HEAD FOR ALL LAYERS
    PRINT BUDGET
    SAVE BUDGET
1
              HEAD IN LAYER   1 AT END OF TIME STEP  11 IN STRESS PERIOD    2
  ---------------------------------------------------------------------------

            1           2           3           4           5           6           7           8           9          10
 ........................................................................................................................
   1    9.991       8.882       7.774       6.665       5.556       4.448       3.339       2.229       1.120      1.1092E-02
   2    9.991       8.882       7.774       6.665       5.556       4.448       3.339       2.229       1.120      1.1092E-02
   3    9.991       8.882       7.774       6.665       5.556       4.448       3.339       2.229       1.120      1.1092E-02
   4    9.991       8.882       7.774       6.665       5.556       4.448       3.339       2.229       1.120      1.1092E-02
   5    9.991       8.882       7.774       6.665       5.556       4.448       3.339       2.229       1.120      1.1092E-02
   6    9.991       8.882       7.774       6.665       5.556       4.448       3.339       2.229       1.120      1.1092E-02
   7    9.991       8.882       7.774       6.665       5.556       4.448       3.339       2.229       1.120      1.1092E-02
   8    9.991       8.882       7.774       6.665       5.556       4.448       3.339       2.229       1.120      1.1092E-02
   9    9.991       8.882       7.774       6.665       5.556       4.448       3.339       2.229       1.120      1.1092E-02
  10    9.991       8.882       7.774       6.665       5.556       4.448       3.339       2.229       1.120      1.1092E-02

 HEAD WILL BE SAVED ON UNIT   51 AT END OF TIME STEP   11, STRESS PERIOD    2
1
  VOLUMETRIC BUDGET FOR ENTIRE MODEL AT END OF TIME STEP   11, STRESS PERIOD   2
  ------------------------------------------------------------------------------

     CUMULATIVE VOLUMES      L**3       RATES FOR THIS TIME STEP      L**3/T
     ------------------                 ------------------------

           IN:                                      IN:
           ---                                      ---
             STORAGE =       24992.3301               STORAGE =           3.6600
       CONSTANT HEAD =           0.0000         CONSTANT HEAD =           0.0000
               WELLS =           0.0000                 WELLS =           0.0000
     HEAD DEP BOUNDS =       53559.0547       HEAD DEP BOUNDS =        5542.1904

            TOTAL IN =       78551.3828              TOTAL IN =        5545.8506

          OUT:                                     OUT:
          ----                                     ----
             STORAGE =           0.0000               STORAGE =           0.0000
       CONSTANT HEAD =           0.0000         CONSTANT HEAD =           0.0000
               WELLS =           0.0000                 WELLS =           0.0000
     HEAD DEP BOUNDS =       78552.6406       HEAD DEP BOUNDS =        5546.0923

           TOTAL OUT =       78552.6406             TOTAL OUT =        5546.0923

            IN - OUT =          -1.2578              IN - OUT =          -0.2417

 PERCENT DISCREPANCY =          -0.00     PERCENT DISCREPANCY =          -0.00






         TIME SUMMARY AT END OF TIME STEP   11 IN STRESS PERIOD    2
                    SECONDS     MINUTES      HOURS       DAYS        YEARS
                    -----------------------------------------------------------
   TIME STEP LENGTH  86400.      1440.0      24.000      1.0000     2.73785E-03
 STRESS PERIOD TIME 9.50400E+05  15840.      264.00      11.000     3.01164E-02
         TOTAL TIME 1.03680E+06  17280.      288.00      12.000     3.28542E-02
1

 SOLVING FOR HEAD 

 OUTPUT CONTROL FOR STRESS PERIOD    2   TIME STEP   12
    PRINT HEAD FOR ALL LAYERS
    SAVE HEAD FOR ALL LAYERS
    PRINT BUDGET
    SAVE BUDGET
1
              HEAD IN LAYER   1 AT END OF TIME STEP  12 IN STRESS PERIOD    2
  ---------------------------------------------------------------------------

            1           2           3           4           5           6           7           8           9          10
 ........................................................................................................................
   1    9.991       8.882       7.773       6.665       5.556       4.447       3.338       2.229       1.120      1.1090E-02
   2    9.991       8.882       7.773       6.665       5.556       4.447       3.338       2.229       1.120      1.1090E-02
   3    9.991       8.882       7.773       6.665       5.556       4.447       3.338       2.229       1.120      1.1090E-02
   4    9.991       8.882       7.773       6.665       5.556       4.447       3.338       2.229       1.120      1.1090E-02
   5    9.991       8.882       7.773       6.665       5.556       4.447       3.338       2.229       1.120      1.1090E-02
   6    9.991       8.882       7.773       6.665       5.556       4.447       3.338       2.229       1.120      1.1090E-02
   7    9.991       8.882       7.773       6.665       5.556       4.447       3.338       2.229       1.120      1.1090E-02
   8    9.991       8.882       7.773       6.665       5.556       4.447       3.338       2.229       1.120      1.1090E-02
   9    9.991       8.882       7.773       6.665       5.556       4.447       3.338       2.229       1.120      1.1090E-02
  10    9.991       8.882       7.773       6.665       5.556       4.447       3.338       2.229       1.120      1.1090E-02

 HEAD WILL BE SAVED ON UNIT   51 AT END OF TIME STEP   12, STRESS PERIOD    2
1
  VOLUMETRIC BUDGET FOR ENTIRE MODEL AT END OF TIME STEP   12, STRESS PERIOD   2
  ------------------------------------------------------------------------------

     CUMULATIVE VOLUMES      L**3       RATES FOR THIS TIME STEP      L**3/T
     ------------------                 ------------------------

           IN:                                      IN:
           ---                                      ---
             STORAGE =       24993.9922               STORAGE =           1.6624
       CONSTANT HEAD =           0.0000         CONSTANT HEAD =           0.0000
               WELLS =           0.0000                 WELLS =           0.0000
     HEAD DEP BOUNDS =       59102.2422       HEAD DEP BOUNDS =        5543.1870

            TOTAL IN =       84096.2344              TOTAL IN =        5544.8496

          OUT:                                     OUT:
          ----                                     ----
             STORAGE =           0.0000               STORAGE =           0.0000
       CONSTANT HEAD =           0.0000         CONSTANT HEAD =           0.0000
               WELLS =           0.0000                 WELLS =           0.0000
     HEAD DEP BOUNDS =       84097.7344       HEAD DEP BOUNDS =        5545.0933

           TOTAL OUT =       84097.7344             TOTAL OUT =        5545.0933

            IN - OUT =          -1.5000              IN - OUT =          -0.2437

 PERCENT DISCREPANCY =          -0.00     PERCENT DISCREPANCY =          -0.00






         TIME SUMMARY AT END OF TIME STEP   12 IN STRESS PERIOD    2
                    SECONDS     MINUTES      HOURS       DAYS        YEARS
                    -----------------------------------------------------------
   TIME STEP LENGTH  86400.      1440.0      24.000      1.0000     2.73785E-03
 STRESS PERIOD TIME 1.03680E+06  17280.      288.00      12.000     3.28542E-02
         TOTAL TIME 1.12320E+06  18720.      312.00      13.000     3.55921E-02
1

 SOLVING FOR HEAD 

 OUTPUT CONTROL FOR STRESS PERIOD    2   TIME STEP   13
    PRINT HEAD FOR ALL LAYERS
    SAVE HEAD FOR ALL LAYERS
    PRINT BUDGET
    SAVE BUDGET
1
              HEAD IN LAYER   1 AT END OF TIME STEP  13 IN STRESS PERIOD    2
  ---------------------------------------------------------------------------

            1           2           3           4           5           6           7           8           9          10
 ........................................................................................................................
   1    9.991       8.882       7.773       6.664       5.556       4.447       3.338       2.229       1.120      1.1089E-02
   2    9.991       8.882       7.773       6.664       5.556       4.447       3.338       2.229       1.120      1.1089E-02
   3    9.991       8.882       7.773       6.664       5.556       4.447       3.338       2.229       1.120      1.1089E-02
   4    9.991       8.882       7.773       6.664       5.556       4.447       3.338       2.229       1.120      1.1089E-02
   5    9.991       8.882       7.773       6.664       5.556       4.447       3.338       2.229       1.120      1.1089E-02
   6    9.991       8.882       7.773       6.664       5.556       4.447       3.338       2.229       1.120      1.1089E-02
   7    9.991       8.882       7.773       6.664       5.556       4.447       3.338       2.229       1.120      1.1089E-02
   8    9.991       8.882       7.773       6.664       5.556       4.447       3.338       2.229       1.120      1.1089E-02
   9    9.991       8.882       7.773       6.664       5.556       4.447       3.338       2.229       1.120      1.1089E-02
  10    9.991       8.882       7.773       6.664       5.556       4.447       3.338       2.229       1.120      1.1089E-02

 HEAD WILL BE SAVED ON UNIT   51 AT END OF TIME STEP   13, STRESS PERIOD    2
1
  VOLUMETRIC BUDGET FOR ENTIRE MODEL AT END OF TIME STEP   13, STRESS PERIOD   2
  ------------------------------------------------------------------------------

     CUMULATIVE VOLUMES      L**3       RATES FOR THIS TIME STEP      L**3/T
     ------------------                 ------------------------

           IN:                                      IN:
           ---                                      ---
             STORAGE =       24994.7480               STORAGE =           0.7559
       CONSTANT HEAD =           0.0000         CONSTANT HEAD =           0.0000
               WELLS =           0.0000                 WELLS =           0.0000
     HEAD DEP BOUNDS =       64645.8828       HEAD DEP BOUNDS =        5543.6396

            TOTAL IN =       89640.6328              TOTAL IN =        5544.3955

          OUT:                                     OUT:
          ----                                     ----
             STORAGE =           0.0000               STORAGE =           0.0000
       CONSTANT HEAD =           0.0000         CONSTANT HEAD =           0.0000
               WELLS =           0.0000                 WELLS =           0.0000
     HEAD DEP BOUNDS =       89642.3750       HEAD DEP BOUNDS =        5544.6396

           TOTAL OUT =       89642.3750             TOTAL OUT =        5544.6396

            IN - OUT =          -1.7422              IN - OUT =          -0.2441

 PERCENT DISCREPANCY =          -0.00     PERCENT DISCREPANCY =          -0.00






         TIME SUMMARY AT END OF TIME STEP   13 IN STRESS PERIOD    2
                    SECONDS     MINUTES      HOURS       DAYS        YEARS
                    -----------------------------------------------------------
   TIME STEP LENGTH  86400.      1440.0      24.000      1.0000     2.73785E-03
 STRESS PERIOD TIME 1.12320E+06  18720.      312.00      13.000     3.55921E-02
         TOTAL TIME 1.20960E+06  20160.      336.00      14.000     3.83299E-02
1

 SOLVING FOR HEAD 

 OUTPUT CONTROL FOR STRESS PERIOD    2   TIME STEP   14
    PRINT HEAD FOR ALL LAYERS
    SAVE HEAD FOR ALL LAYERS
    PRINT BUDGET
    SAVE BUDGET
1
              HEAD IN LAYER   1 AT END OF TIME STEP  14 IN STRESS PERIOD    2
  ---------------------------------------------------------------------------

            1           2           3           4           5           6           7           8           9          10
 ........................................................................................................................
   1    9.991       8.882       7.773       6.664       5.555       4.447       3.338       2.229       1.120      1.1089E-02
   2    9.991       8.882       7.773       6.664       5.555       4.447       3.338       2.229       1.120      1.1089E-02
   3    9.991       8.882       7.773       6.664       5.555       4.447       3.338       2.229       1.120      1.1089E-02
   4    9.991       8.882       7.773       6.664       5.555       4.447       3.338       2.229       1.120      1.1089E-02
   5    9.991       8.882       7.773       6.664       5.555       4.447       3.338       2.229       1.120      1.1089E-02
   6    9.991       8.882       7.773       6.664       5.555       4.447       3.338       2.229       1.120      1.1089E-02
   7    9.991       8.882       7.773       6.664       5.555       4.447       3.338       2.229       1.120      1.1089E-02
   8    9.991       8.882       7.773       6.664       5.555       4.447       3.338       2.229       1.120      1.1089E-02
   9    9.991       8.882       7.773       6.664       5.555       4.447       3.338       2.229       1.120      1.1089E-02
  10    9.991       8.882       7.773       6.664       5.555       4.447       3.338       2.229       1.120      1.1089E-02

 HEAD WILL BE SAVED ON UNIT   51 AT END OF TIME STEP   14, STRESS PERIOD    2
1
  VOLUMETRIC BUDGET FOR ENTIRE MODEL AT END OF TIME STEP   14, STRESS PERIOD   2
  ------------------------------------------------------------------------------

     CUMULATIVE VOLUMES      L**3       RATES FOR THIS TIME STEP      L**3/T
     ------------------                 ------------------------

           IN:                                      IN:
           ---                                      ---
             STORAGE =       24995.0918               STORAGE =           0.3433
       CONSTANT HEAD =           0.0000         CONSTANT HEAD =           0.0000
               WELLS =           0.0000                 WELLS =           0.0000
     HEAD DEP BOUNDS =       70189.7266       HEAD DEP BOUNDS =        5543.8457

            TOTAL IN =       95184.8203              TOTAL IN =        5544.1890

          OUT:                                     OUT:
          ----                                     ----
             STORAGE =           0.0000               STORAGE =           0.0000
       CONSTANT HEAD =           0.0000         CONSTANT HEAD =           0.0000
               WELLS =           0.0000                 WELLS =           0.0000
     HEAD DEP BOUNDS =       95186.8125       HEAD DEP BOUNDS =        5544.4336

           TOTAL OUT =       95186.8125             TOTAL OUT =        5544.4336

            IN - OUT =          -1.9922              IN - OUT =          -0.2446

 PERCENT DISCREPANCY =          -0.00     PERCENT DISCREPANCY =          -0.00






         TIME SUMMARY AT END OF TIME STEP   14 IN STRESS PERIOD    2
                    SECONDS     MINUTES      HOURS       DAYS        YEARS
                    -----------------------------------------------------------
   TIME STEP LENGTH  86400.      1440.0      24.000      1.0000     2.73785E-03
 STRESS PERIOD TIME 1.20960E+06  20160.      336.00      14.000     3.83299E-02
         TOTAL TIME 1.29600E+06  21600.      360.00      15.000     4.10678E-02
1

 SOLVING FOR HEAD 

 OUTPUT CONTROL FOR STRESS PERIOD    2   TIME STEP   15
    PRINT HEAD FOR ALL LAYERS
    SAVE HEAD FOR ALL LAYERS
    PRINT BUDGET
    SAVE BUDGET
1
              HEAD IN LAYER   1 AT END OF TIME STEP  15 IN STRESS PERIOD    2
  ---------------------------------------------------------------------------

            1           2           3           4           5           6           7           8           9          10
 ........................................................................................................................
   1    9.991       8.882       7.773       6.664       5.555       4.447       3.338       2.229       1.120      1.1089E-02
   2    9.991       8.882       7.773       6.664       5.555       4.447       3.338       2.229       1.120      1.1089E-02
   3    9.991       8.882       7.773       6.664       5.555       4.447       3.338       2.229       1.120      1.1089E-02
   4    9.991       8.882       7.773       6.664       5.555       4.447       3.338       2.229       1.120      1.1089E-02
   5    9.991       8.882       7.773       6.664       5.555       4.447       3.338       2.229       1.120      1.1089E-02
   6    9.991       8.882       7.773       6.664       5.555       4.447       3.338       2.229       1.120      1.1089E-02
   7    9.991       8.882       7.773       6.664       5.555       4.447       3.338       2.229       1.120      1.1089E-02
   8    9.991       8.882       7.773       6.664       5.555       4.447       3.338       2.229       1.120      1.1089E-02
   9    9.991       8.882       7.773       6.664       5.555       4.447       3.338       2.229       1.120      1.1089E-02
  10    9.991       8.882       7.773       6.664       5.555       4.447       3.338       2.229       1.120      1.1089E-02

 HEAD WILL BE SAVED ON UNIT   51 AT END OF TIME STEP   15, STRESS PERIOD    2
1
  VOLUMETRIC BUDGET FOR ENTIRE MODEL AT END OF TIME STEP   15, STRESS PERIOD   2
  ------------------------------------------------------------------------------

     CUMULATIVE VOLUMES      L**3       RATES FOR THIS TIME STEP      L**3/T
     ------------------                 ------------------------

           IN:                                      IN:
           ---                                      ---
             STORAGE =       24995.2461               STORAGE =           0.1552
       CONSTANT HEAD =           0.0000         CONSTANT HEAD =           0.0000
               WELLS =           0.0000                 WELLS =           0.0000
     HEAD DEP BOUNDS =       75733.6641       HEAD DEP BOUNDS =        5543.9395

            TOTAL IN =      100728.9062              TOTAL IN =        5544.0947

          OUT:                                     OUT:
          ----                                     ----
             STORAGE =           0.0000               STORAGE =           0.0000
       CONSTANT HEAD =           0.0000         CONSTANT HEAD =           0.0000
               WELLS =           0.0000                 WELLS =           0.0000
     HEAD DEP BOUNDS =      100731.1562       HEAD DEP BOUNDS =        5544.3398

           TOTAL OUT =      100731.1562             TOTAL OUT =        5544.3398

            IN - OUT =          -2.2500              IN - OUT =          -0.2451

 PERCENT DISCREPANCY =          -0.00     PERCENT DISCREPANCY =          -0.00






         TIME SUMMARY AT END OF TIME STEP   15 IN STRESS PERIOD    2
                    SECONDS     MINUTES      HOURS       DAYS        YEARS
                    -----------------------------------------------------------
   TIME STEP LENGTH  86400.      1440.0      24.000      1.0000     2.73785E-03
 STRESS PERIOD TIME 1.29600E+06  21600.      360.00      15.000     4.10678E-02
         TOTAL TIME 1.38240E+06  23040.      384.00      16.000     4.38056E-02
1

 SOLVING FOR HEAD 

 OUTPUT CONTROL FOR STRESS PERIOD    2   TIME STEP   16
    PRINT HEAD FOR ALL LAYERS
    SAVE HEAD FOR ALL LAYERS
    PRINT BUDGET
    SAVE BUDGET
1
              HEAD IN LAYER   1 AT END OF TIME STEP  16 IN STRESS PERIOD    2
  ---------------------------------------------------------------------------

            1           2           3           4           5           6           7           8           9          10
 ........................................................................................................................
   1    9.991       8.882       7.773       6.664       5.555       4.447       3.338       2.229       1.120      1.1089E-02
   2    9.991       8.882       7.773       6.664       5.555       4.447       3.338       2.229       1.120      1.1089E-02
   3    9.991       8.882       7.773       6.664       5.555       4.447       3.338       2.229       1.120      1.1089E-02
   4    9.991       8.882       7.773       6.664       5.555       4.447       3.338       2.229       1.120      1.1089E-02
   5    9.991       8.882       7.773       6.664       5.555       4.447       3.338       2.229       1.120      1.1089E-02
   6    9.991       8.882       7.773       6.664       5.555       4.447       3.338       2.229       1.120      1.1089E-02
   7    9.991       8.882       7.773       6.664       5.555       4.447       3.338       2.229       1.120      1.1089E-02
   8    9.991       8.882       7.773       6.664       5.555       4.447       3.338       2.229       1.120      1.1089E-02
   9    9.991       8.882       7.773       6.664       5.555       4.447       3.338       2.229       1.120      1.1089E-02
  10    9.991       8.882       7.773       6.664       5.555       4.447       3.338       2.229       1.120      1.1089E-02

 HEAD WILL BE SAVED ON UNIT   51 AT END OF TIME STEP   16, STRESS PERIOD    2
1
  VOLUMETRIC BUDGET FOR ENTIRE MODEL AT END OF TIME STEP   16, STRESS PERIOD   2
  ------------------------------------------------------------------------------

     CUMULATIVE VOLUMES      L**3       RATES FOR THIS TIME STEP      L**3/T
     ------------------                 ------------------------

           IN:                                      IN:
           ---                                      ---
             STORAGE =       24995.3164               STORAGE =       7.1148E-02
       CONSTANT HEAD =           0.0000         CONSTANT HEAD =           0.0000
               WELLS =           0.0000                 WELLS =           0.0000
     HEAD DEP BOUNDS =       81277.6484       HEAD DEP BOUNDS =        5543.9814

            TOTAL IN =      106272.9688              TOTAL IN =        5544.0527

          OUT:                                     OUT:
          ----                                     ----
             STORAGE =           0.0000               STORAGE =           0.0000
       CONSTANT HEAD =           0.0000         CONSTANT HEAD =           0.0000
               WELLS =           0.0000                 WELLS =           0.0000
     HEAD DEP BOUNDS =      106275.4531       HEAD DEP BOUNDS =        5544.2974

           TOTAL OUT =      106275.4531             TOTAL OUT =        5544.2974

            IN - OUT =          -2.4844              IN - OUT =          -0.2446

 PERCENT DISCREPANCY =          -0.00     PERCENT DISCREPANCY =          -0.00






         TIME SUMMARY AT END OF TIME STEP   16 IN STRESS PERIOD    2
                    SECONDS     MINUTES      HOURS       DAYS        YEARS
                    -----------------------------------------------------------
   TIME STEP LENGTH  86400.      1440.0      24.000      1.0000     2.73785E-03
 STRESS PERIOD TIME 1.38240E+06  23040.      384.00      16.000     4.38056E-02
         TOTAL TIME 1.46880E+06  24480.      408.00      17.000     4.65435E-02
1

 SOLVING FOR HEAD 

 OUTPUT CONTROL FOR STRESS PERIOD    2   TIME STEP   17
    PRINT HEAD FOR ALL LAYERS
    SAVE HEAD FOR ALL LAYERS
    PRINT BUDGET
    SAVE BUDGET
1
              HEAD IN LAYER   1 AT END OF TIME STEP  17 IN STRESS PERIOD    2
  ---------------------------------------------------------------------------

            1           2           3           4           5           6           7           8           9          10
 ........................................................................................................................
   1    9.991       8.882       7.773       6.664       5.555       4.447       3.338       2.229       1.120      1.1089E-02
   2    9.991       8.882       7.773       6.664       5.555       4.447       3.338       2.229       1.120      1.1089E-02
   3    9.991       8.882       7.773       6.664       5.555       4.447       3.338       2.229       1.120      1.1089E-02
   4    9.991       8.882       7.773       6.664       5.555       4.447       3.338       2.229       1.120      1.1089E-02
   5    9.991       8.882       7.773       6.664       5.555       4.447       3.338       2.229       1.120      1.1089E-02
   6    9.991       8.882       7.773       6.664       5.555       4.447       3.338       2.229       1.120      1.1089E-02
   7    9.991       8.882       7.773       6.664       5.555       4.447       3.338       2.229       1.120      1.1089E-02
   8    9.991       8.882       7.773       6.664       5.555       4.447       3.338       2.229       1.120      1.1089E-02
   9    9.991       8.882       7.773       6.664       5.555       4.447       3.338       2.229       1.120      1.1089E-02
  10    9.991       8.882       7.773       6.664       5.555       4.447       3.338       2.229       1.120      1.1089E-02

 HEAD WILL BE SAVED ON UNIT   51 AT END OF TIME STEP   17, STRESS PERIOD    2
1
  VOLUMETRIC BUDGET FOR ENTIRE MODEL AT END OF TIME STEP   17, STRESS PERIOD   2
  ------------------------------------------------------------------------------

     CUMULATIVE VOLUMES      L**3       RATES FOR THIS TIME STEP      L**3/T
     ------------------                 ------------------------

           IN:                                      IN:
           ---                                      ---
             STORAGE =       24995.3477               STORAGE =       3.1911E-02
       CONSTANT HEAD =           0.0000         CONSTANT HEAD =           0.0000
               WELLS =           0.0000                 WELLS =           0.0000
     HEAD DEP BOUNDS =       86821.6484       HEAD DEP BOUNDS =        5544.0005

            TOTAL IN =      111817.0000              TOTAL IN =        5544.0322

          OUT:                                     OUT:
          ----                                     ----
             STORAGE =           0.0000               STORAGE =           0.0000
       CONSTANT HEAD =           0.0000         CONSTANT HEAD =           0.0000
               WELLS =           0.0000                 WELLS =           0.0000
     HEAD DEP BOUNDS =      111819.7344       HEAD DEP BOUNDS =        5544.2778

           TOTAL OUT =      111819.7344             TOTAL OUT =        5544.2778

            IN - OUT =          -2.7344              IN - OUT =          -0.2456

 PERCENT DISCREPANCY =          -0.00     PERCENT DISCREPANCY =          -0.00






         TIME SUMMARY AT END OF TIME STEP   17 IN STRESS PERIOD    2
                    SECONDS     MINUTES      HOURS       DAYS        YEARS
                    -----------------------------------------------------------
   TIME STEP LENGTH  86400.      1440.0      24.000      1.0000     2.73785E-03
 STRESS PERIOD TIME 1.46880E+06  24480.      408.00      17.000     4.65435E-02
         TOTAL TIME 1.55520E+06  25920.      432.00      18.000     4.92813E-02
1

 SOLVING FOR HEAD 

 OUTPUT CONTROL FOR STRESS PERIOD    2   TIME STEP   18
    PRINT HEAD FOR ALL LAYERS
    SAVE HEAD FOR ALL LAYERS
    PRINT BUDGET
    SAVE BUDGET
1
[...]
                    SECONDS     MINUTES      HOURS       DAYS        YEARS
                    -----------------------------------------------------------
   TIME STEP LENGTH  86400.      1440.0      24.000      1.0000     2.73785E-03
 STRESS PERIOD TIME 8.20800E+06 1.36800E+05  2280.0      95.000     0.26010    
         TOTAL TIME 1.69344E+07 2.82240E+05  4704.0      196.00     0.53662    
1

 SOLVING FOR HEAD 

 OUTPUT CONTROL FOR STRESS PERIOD    3   TIME STEP   96
    PRINT HEAD FOR ALL LAYERS
    SAVE HEAD FOR ALL LAYERS
    PRINT BUDGET
    SAVE BUDGET
1
              HEAD IN LAYER   1 AT END OF TIME STEP  96 IN STRESS PERIOD    3
  ---------------------------------------------------------------------------

            1           2           3           4           5           6           7           8           9          10
 ........................................................................................................................
   1    9.991       8.872       7.755       6.640       5.528       4.420       3.315       2.213       1.112      1.1006E-02
   2    9.991       8.871       7.753       6.636       5.523       4.416       3.313       2.211       1.111      1.1000E-02
   3    9.991       8.870       7.749       6.629       5.514       4.409       3.309       2.209       1.110      1.0991E-02
   4    9.991       8.868       7.743       6.618       5.493       4.398       3.303       2.207       1.109      1.0982E-02
   5    9.991       8.866       7.740       6.605       5.445       4.385       3.299       2.206       1.109      1.0978E-02
   6    9.991       8.868       7.744       6.619       5.494       4.399       3.304       2.207       1.109      1.0985E-02
   7    9.991       8.870       7.750       6.631       5.516       4.411       3.310       2.210       1.111      1.0998E-02
   8    9.991       8.873       7.755       6.639       5.527       4.420       3.316       2.213       1.112      1.1011E-02
   9    9.991       8.874       7.758       6.644       5.533       4.425       3.319       2.216       1.113      1.1021E-02
  10    9.991       8.875       7.760       6.647       5.535       4.427       3.321       2.217       1.114      1.1026E-02

 HEAD WILL BE SAVED ON UNIT   51 AT END OF TIME STEP   96, STRESS PERIOD    3
1
  VOLUMETRIC BUDGET FOR ENTIRE MODEL AT END OF TIME STEP   96, STRESS PERIOD   3
  ------------------------------------------------------------------------------

     CUMULATIVE VOLUMES      L**3       RATES FOR THIS TIME STEP      L**3/T
     ------------------                 ------------------------

           IN:                                      IN:
           ---                                      ---
             STORAGE =       25095.8281               STORAGE =           0.0000
       CONSTANT HEAD =           0.0000         CONSTANT HEAD =           0.0000
               WELLS =           0.0000                 WELLS =           0.0000
     HEAD DEP BOUNDS =     1084476.0000       HEAD DEP BOUNDS =        5599.5239

            TOTAL IN =     1109571.8750              TOTAL IN =        5599.5239

          OUT:                                     OUT:
          ----                                     ----
             STORAGE =           0.0000               STORAGE =           0.0000
       CONSTANT HEAD =           0.0000         CONSTANT HEAD =           0.0000
               WELLS =        9600.0000                 WELLS =         100.0000
     HEAD DEP BOUNDS =     1100023.8750       HEAD DEP BOUNDS =        5499.8154

           TOTAL OUT =     1109623.8750             TOTAL OUT =        5599.8154

            IN - OUT =         -52.0000              IN - OUT =          -0.2915

 PERCENT DISCREPANCY =          -0.00     PERCENT DISCREPANCY =          -0.01






         TIME SUMMARY AT END OF TIME STEP   96 IN STRESS PERIOD    3
                    SECONDS     MINUTES      HOURS       DAYS        YEARS
                    -----------------------------------------------------------
   TIME STEP LENGTH  86400.      1440.0      24.000      1.0000     2.73785E-03
 STRESS PERIOD TIME 8.29440E+06 1.38240E+05  2304.0      96.000     0.26283    
         TOTAL TIME 1.70208E+07 2.83680E+05  4728.0      197.00     0.53936    
1

 SOLVING FOR HEAD 

 OUTPUT CONTROL FOR STRESS PERIOD    3   TIME STEP   97
    PRINT HEAD FOR ALL LAYERS
    SAVE HEAD FOR ALL LAYERS
    PRINT BUDGET
    SAVE BUDGET
1
              HEAD IN LAYER   1 AT END OF TIME STEP  97 IN STRESS PERIOD    3
  ---------------------------------------------------------------------------

            1           2           3           4           5           6           7           8           9          10
 ........................................................................................................................
   1    9.991       8.872       7.755       6.640       5.528       4.420       3.315       2.213       1.112      1.1006E-02
   2    9.991       8.871       7.753       6.636       5.523       4.416       3.313       2.211       1.111      1.1000E-02
   3    9.991       8.870       7.749       6.629       5.514       4.409       3.309       2.209       1.110      1.0991E-02
   4    9.991       8.868       7.743       6.618       5.493       4.398       3.303       2.207       1.109      1.0982E-02
   5    9.991       8.866       7.740       6.605       5.445       4.385       3.299       2.206       1.109      1.0978E-02
   6    9.991       8.868       7.744       6.619       5.494       4.399       3.304       2.207       1.109      1.0985E-02
   7    9.991       8.870       7.750       6.631       5.516       4.411       3.310       2.210       1.111      1.0998E-02
   8    9.991       8.873       7.755       6.639       5.527       4.420       3.316       2.213       1.112      1.1011E-02
   9    9.991       8.874       7.758       6.644       5.533       4.425       3.319       2.216       1.113      1.1021E-02
  10    9.991       8.875       7.760       6.647       5.535       4.427       3.321       2.217       1.114      1.1026E-02

 HEAD WILL BE SAVED ON UNIT   51 AT END OF TIME STEP   97, STRESS PERIOD    3
1
  VOLUMETRIC BUDGET FOR ENTIRE MODEL AT END OF TIME STEP   97, STRESS PERIOD   3
  ------------------------------------------------------------------------------

     CUMULATIVE VOLUMES      L**3       RATES FOR THIS TIME STEP      L**3/T
     ------------------                 ------------------------

           IN:                                      IN:
           ---                                      ---
             STORAGE =       25095.8281               STORAGE =           0.0000
       CONSTANT HEAD =           0.0000         CONSTANT HEAD =           0.0000
               WELLS =           0.0000                 WELLS =           0.0000
     HEAD DEP BOUNDS =     1090075.5000       HEAD DEP BOUNDS =        5599.5239

            TOTAL IN =     1115171.3750              TOTAL IN =        5599.5239

          OUT:                                     OUT:
          ----                                     ----
             STORAGE =           0.0000               STORAGE =           0.0000
       CONSTANT HEAD =           0.0000         CONSTANT HEAD =           0.0000
               WELLS =        9700.0000                 WELLS =         100.0000
     HEAD DEP BOUNDS =     1105523.7500       HEAD DEP BOUNDS =        5499.8154

           TOTAL OUT =     1115223.7500             TOTAL OUT =        5599.8154

            IN - OUT =         -52.3750              IN - OUT =          -0.2915

 PERCENT DISCREPANCY =          -0.00     PERCENT DISCREPANCY =          -0.01






         TIME SUMMARY AT END OF TIME STEP   97 IN STRESS PERIOD    3
                    SECONDS     MINUTES      HOURS       DAYS        YEARS
                    -----------------------------------------------------------
   TIME STEP LENGTH  86400.      1440.0      24.000      1.0000     2.73785E-03
 STRESS PERIOD TIME 8.38080E+06 1.39680E+05  2328.0      97.000     0.26557    
         TOTAL TIME 1.71072E+07 2.85120E+05  4752.0      198.00     0.54209    
1

 SOLVING FOR HEAD 

 OUTPUT CONTROL FOR STRESS PERIOD    3   TIME STEP   98
    PRINT HEAD FOR ALL LAYERS
    SAVE HEAD FOR ALL LAYERS
    PRINT BUDGET
    SAVE BUDGET
1
              HEAD IN LAYER   1 AT END OF TIME STEP  98 IN STRESS PERIOD    3
  ---------------------------------------------------------------------------

            1           2           3           4           5           6           7           8           9          10
 ........................................................................................................................
   1    9.991       8.872       7.755       6.640       5.528       4.420       3.315       2.213       1.112      1.1006E-02
   2    9.991       8.871       7.753       6.636       5.523       4.416       3.313       2.211       1.111      1.1000E-02
   3    9.991       8.870       7.749       6.629       5.514       4.409       3.309       2.209       1.110      1.0991E-02
   4    9.991       8.868       7.743       6.618       5.493       4.398       3.303       2.207       1.109      1.0982E-02
   5    9.991       8.866       7.740       6.605       5.445       4.385       3.299       2.206       1.109      1.0978E-02
   6    9.991       8.868       7.744       6.619       5.494       4.399       3.304       2.207       1.109      1.0985E-02
   7    9.991       8.870       7.750       6.631       5.516       4.411       3.310       2.210       1.111      1.0998E-02
   8    9.991       8.873       7.755       6.639       5.527       4.420       3.316       2.213       1.112      1.1011E-02
   9    9.991       8.874       7.758       6.644       5.533       4.425       3.319       2.216       1.113      1.1021E-02
  10    9.991       8.875       7.760       6.647       5.535       4.427       3.321       2.217       1.114      1.1026E-02

 HEAD WILL BE SAVED ON UNIT   51 AT END OF TIME STEP   98, STRESS PERIOD    3
1
  VOLUMETRIC BUDGET FOR ENTIRE MODEL AT END OF TIME STEP   98, STRESS PERIOD   3
  ------------------------------------------------------------------------------

     CUMULATIVE VOLUMES      L**3       RATES FOR THIS TIME STEP      L**3/T
     ------------------                 ------------------------

           IN:                                      IN:
           ---                                      ---
             STORAGE =       25095.8281               STORAGE =           0.0000
       CONSTANT HEAD =           0.0000         CONSTANT HEAD =           0.0000
               WELLS =           0.0000                 WELLS =           0.0000
     HEAD DEP BOUNDS =     1095675.0000       HEAD DEP BOUNDS =        5599.5239

            TOTAL IN =     1120770.8750              TOTAL IN =        5599.5239

          OUT:                                     OUT:
          ----                                     ----
             STORAGE =           0.0000               STORAGE =           0.0000
       CONSTANT HEAD =           0.0000         CONSTANT HEAD =           0.0000
               WELLS =        9800.0000                 WELLS =         100.0000
     HEAD DEP BOUNDS =     1111023.6250       HEAD DEP BOUNDS =        5499.8154

           TOTAL OUT =     1120823.6250             TOTAL OUT =        5599.8154

            IN - OUT =         -52.7500              IN - OUT =          -0.2915

 PERCENT DISCREPANCY =          -0.00     PERCENT DISCREPANCY =          -0.01






         TIME SUMMARY AT END OF TIME STEP   98 IN STRESS PERIOD    3
                    SECONDS     MINUTES      HOURS       DAYS        YEARS
                    -----------------------------------------------------------
   TIME STEP LENGTH  86400.      1440.0      24.000      1.0000     2.73785E-03
 STRESS PERIOD TIME 8.46720E+06 1.41120E+05  2352.0      98.000     0.26831    
         TOTAL TIME 1.71936E+07 2.86560E+05  4776.0      199.00     0.54483    
1

 SOLVING FOR HEAD 

 OUTPUT CONTROL FOR STRESS PERIOD    3   TIME STEP   99
    PRINT HEAD FOR ALL LAYERS
    SAVE HEAD FOR ALL LAYERS
    PRINT BUDGET
    SAVE BUDGET
1
              HEAD IN LAYER   1 AT END OF TIME STEP  99 IN STRESS PERIOD    3
  ---------------------------------------------------------------------------

            1           2           3           4           5           6           7           8           9          10
 ........................................................................................................................
   1    9.991       8.872       7.755       6.640       5.528       4.420       3.315       2.213       1.112      1.1006E-02
   2    9.991       8.871       7.753       6.636       5.523       4.416       3.313       2.211       1.111      1.1000E-02
   3    9.991       8.870       7.749       6.629       5.514       4.409       3.309       2.209       1.110      1.0991E-02
   4    9.991       8.868       7.743       6.618       5.493       4.398       3.303       2.207       1.109      1.0982E-02
   5    9.991       8.866       7.740       6.605       5.445       4.385       3.299       2.206       1.109      1.0978E-02
   6    9.991       8.868       7.744       6.619       5.494       4.399       3.304       2.207       1.109      1.0985E-02
   7    9.991       8.870       7.750       6.631       5.516       4.411       3.310       2.210       1.111      1.0998E-02
   8    9.991       8.873       7.755       6.639       5.527       4.420       3.316       2.213       1.112      1.1011E-02
   9    9.991       8.874       7.758       6.644       5.533       4.425       3.319       2.216       1.113      1.1021E-02
  10    9.991       8.875       7.760       6.647       5.535       4.427       3.321       2.217       1.114      1.1026E-02

 HEAD WILL BE SAVED ON UNIT   51 AT END OF TIME STEP   99, STRESS PERIOD    3
1
  VOLUMETRIC BUDGET FOR ENTIRE MODEL AT END OF TIME STEP   99, STRESS PERIOD   3
  ------------------------------------------------------------------------------

     CUMULATIVE VOLUMES      L**3       RATES FOR THIS TIME STEP      L**3/T
     ------------------                 ------------------------

           IN:                                      IN:
           ---                                      ---
             STORAGE =       25095.8281               STORAGE =           0.0000
       CONSTANT HEAD =           0.0000         CONSTANT HEAD =           0.0000
               WELLS =           0.0000                 WELLS =           0.0000
     HEAD DEP BOUNDS =     1101274.5000       HEAD DEP BOUNDS =        5599.5239

            TOTAL IN =     1126370.3750              TOTAL IN =        5599.5239

          OUT:                                     OUT:
          ----                                     ----
             STORAGE =           0.0000               STORAGE =           0.0000
       CONSTANT HEAD =           0.0000         CONSTANT HEAD =           0.0000
               WELLS =        9900.0000                 WELLS =         100.0000
     HEAD DEP BOUNDS =     1116523.5000       HEAD DEP BOUNDS =        5499.8154

           TOTAL OUT =     1126423.5000             TOTAL OUT =        5599.8154

            IN - OUT =         -53.1250              IN - OUT =          -0.2915

 PERCENT DISCREPANCY =          -0.00     PERCENT DISCREPANCY =          -0.01






         TIME SUMMARY AT END OF TIME STEP   99 IN STRESS PERIOD    3
                    SECONDS     MINUTES      HOURS       DAYS        YEARS
                    -----------------------------------------------------------
   TIME STEP LENGTH  86400.      1440.0      24.000      1.0000     2.73785E-03
 STRESS PERIOD TIME 8.55360E+06 1.42560E+05  2376.0      99.000     0.27105    
         TOTAL TIME 1.72800E+07 2.88000E+05  4800.0      200.00     0.54757    
1

 SOLVING FOR HEAD 

 OUTPUT CONTROL FOR STRESS PERIOD    3   TIME STEP  100
    PRINT HEAD FOR ALL LAYERS
    SAVE HEAD FOR ALL LAYERS
    PRINT BUDGET
    SAVE BUDGET
1
              HEAD IN LAYER   1 AT END OF TIME STEP 100 IN STRESS PERIOD    3
  ---------------------------------------------------------------------------

            1           2           3           4           5           6           7           8           9          10
 ........................................................................................................................
   1    9.991       8.872       7.755       6.640       5.528       4.420       3.315       2.213       1.112      1.1006E-02
   2    9.991       8.871       7.753       6.636       5.523       4.416       3.313       2.211       1.111      1.1000E-02
   3    9.991       8.870       7.749       6.629       5.514       4.409       3.309       2.209       1.110      1.0991E-02
   4    9.991       8.868       7.743       6.618       5.493       4.398       3.303       2.207       1.109      1.0982E-02
   5    9.991       8.866       7.740       6.605       5.445       4.385       3.299       2.206       1.109      1.0978E-02
   6    9.991       8.868       7.744       6.619       5.494       4.399       3.304       2.207       1.109      1.0985E-02
   7    9.991       8.870       7.750       6.631       5.516       4.411       3.310       2.210       1.111      1.0998E-02
   8    9.991       8.873       7.755       6.639       5.527       4.420       3.316       2.213       1.112      1.1011E-02
   9    9.991       8.874       7.758       6.644       5.533       4.425       3.319       2.216       1.113      1.1021E-02
  10    9.991       8.875       7.760       6.647       5.535       4.427       3.321       2.217       1.114      1.1026E-02

 HEAD WILL BE SAVED ON UNIT   51 AT END OF TIME STEP  100, STRESS PERIOD    3
1
  VOLUMETRIC BUDGET FOR ENTIRE MODEL AT END OF TIME STEP  100, STRESS PERIOD   3
  ------------------------------------------------------------------------------

     CUMULATIVE VOLUMES      L**3       RATES FOR THIS TIME STEP      L**3/T
     ------------------                 ------------------------

           IN:                                      IN:
           ---                                      ---
             STORAGE =       25095.8281               STORAGE =           0.0000
       CONSTANT HEAD =           0.0000         CONSTANT HEAD =           0.0000
               WELLS =           0.0000                 WELLS =           0.0000
     HEAD DEP BOUNDS =     1106874.0000       HEAD DEP BOUNDS =        5599.5239

            TOTAL IN =     1131969.8750              TOTAL IN =        5599.5239

          OUT:                                     OUT:
          ----                                     ----
             STORAGE =           0.0000               STORAGE =           0.0000
       CONSTANT HEAD =           0.0000         CONSTANT HEAD =           0.0000
               WELLS =       10000.0000                 WELLS =         100.0000
     HEAD DEP BOUNDS =     1122023.3750       HEAD DEP BOUNDS =        5499.8154

           TOTAL OUT =     1132023.3750             TOTAL OUT =        5599.8154

            IN - OUT =         -53.5000              IN - OUT =          -0.2915

 PERCENT DISCREPANCY =          -0.00     PERCENT DISCREPANCY =          -0.01






         TIME SUMMARY AT END OF TIME STEP  100 IN STRESS PERIOD    3
                    SECONDS     MINUTES      HOURS       DAYS        YEARS
                    -----------------------------------------------------------
   TIME STEP LENGTH  86400.      1440.0      24.000      1.0000     2.73785E-03
 STRESS PERIOD TIME 8.64000E+06 1.44000E+05  2400.0      100.00     0.27379    
         TOTAL TIME 1.73664E+07 2.89440E+05  4824.0      201.00     0.55031    
1

 Run end date and time (yyyy/mm/dd hh:mm:ss): 2017/11/17 12:05:51
 Elapsed run time:  0.122 Seconds

